.gitattributes
.gitconfig
.gitignore
.travis.yml
LICENSE.TXT
Makefile
README.md
developper_notes.md
requirements.txt
setup.py
.github/workflows/tests.yml
data/Hawc2/BD.dat
data/Hawc2/Blade_Planform_Hawc2.csv
data/Hawc2/Blade_Structural_Hawc2.csv
data/Monopile/.gitignore
data/Monopile/ED_Blade_Light.dat
data/Monopile/ED_Tower100_Light.dat
data/Monopile/MT100_ED.dat
data/Monopile/MT100_HD_RegularWave.dat
data/Monopile/MT100_HD_Still.dat
data/Monopile/MT100_LoadsMotions.csv
data/Monopile/MT100_SD.dat
data/Monopile/Main_MT100_RegularWave.fst
data/Monopile/README.py
data/NREL5MW/.gitignore
data/NREL5MW/Main_Onshore.fst
data/NREL5MW/Main_Onshore_DriveTrainTorsion.fst
data/NREL5MW/NREL5MW_Blade_FEM_Modes.csv
data/NREL5MW/NREL5MW_CPCTCQ.txt
data/NREL5MW/NREL5MW_Oper.csv
data/NREL5MW/NREL5MW_Tower_Onshore_FEM_Modes.csv
data/NREL5MW/5MW_Baseline/NREL5MW_IW.dat
data/NREL5MW/5MW_Baseline/NREL5MW_IW_Step.dat
data/NREL5MW/5MW_Baseline/NREL5MW_SvD.dat
data/NREL5MW/5MW_Baseline/NREL5MW_SvD_Simple.dat
data/NREL5MW/5MW_Baseline/NRELOffshrBsline5MW_AeroDyn_blade.dat
data/NREL5MW/5MW_Baseline/NRELOffshrBsline5MW_BeamDyn.dat
data/NREL5MW/5MW_Baseline/NRELOffshrBsline5MW_BeamDyn_Blade.dat
data/NREL5MW/5MW_Baseline/NRELOffshrBsline5MW_Blade.dat
data/NREL5MW/5MW_Baseline/NRELOffshrBsline5MW_OC4Jacket_SubDyn.dat
data/NREL5MW/5MW_Baseline/NRELOffshrBsline5MW_Offshore_ElastoDyn_Tower.dat
data/NREL5MW/5MW_Baseline/NRELOffshrBsline5MW_Onshore_ElastoDyn_Tower.dat
data/NREL5MW/5MW_Baseline/README.rst
data/NREL5MW/5MW_Baseline/Airfoils/Cylinder1.dat
data/NREL5MW/5MW_Baseline/Airfoils/Cylinder1_coords.txt
data/NREL5MW/5MW_Baseline/Airfoils/Cylinder2.dat
data/NREL5MW/5MW_Baseline/Airfoils/Cylinder2_coords.txt
data/NREL5MW/5MW_Baseline/Airfoils/DU21_A17.dat
data/NREL5MW/5MW_Baseline/Airfoils/DU21_A17_coords.txt
data/NREL5MW/5MW_Baseline/Airfoils/DU25_A17.dat
data/NREL5MW/5MW_Baseline/Airfoils/DU25_A17_coords.txt
data/NREL5MW/5MW_Baseline/Airfoils/DU30_A17.dat
data/NREL5MW/5MW_Baseline/Airfoils/DU30_A17_coords.txt
data/NREL5MW/5MW_Baseline/Airfoils/DU35_A17.dat
data/NREL5MW/5MW_Baseline/Airfoils/DU35_A17_coords.txt
data/NREL5MW/5MW_Baseline/Airfoils/DU40_A17.dat
data/NREL5MW/5MW_Baseline/Airfoils/DU40_A17_coords.txt
data/NREL5MW/5MW_Baseline/Airfoils/NACA64_A17.dat
data/NREL5MW/5MW_Baseline/Airfoils/NACA64_A17_coords.txt
data/NREL5MW/dt_torsion/NREL5MW_ED_DT.dat
data/NREL5MW/hawc2/Blade_Planform_Hawc2.csv
data/NREL5MW/hawc2/Blade_Structural_Hawc2.csv
data/NREL5MW/hawc2/README.md
data/NREL5MW/offshore/NREL5MW_ED_Offshore.dat
data/NREL5MW/offshore/NREL5MW_ED_Offshore_Legacy.dat
data/NREL5MW/offshore/NREL5MW_HD.dat
data/NREL5MW/onshore/NREL5MW_AD.dat
data/NREL5MW/onshore/NREL5MW_ED_Onshore.dat
data/Spar/MAP.dat
data/Spar/Main_Spar_ED.fst
data/Spar/Main_Spar_ED_HydroExample.fst
data/Spar/Main_Spar_ED_HydroExample.outb
data/Spar/Main_Spar_ED_MAP.fst
data/Spar/Main_Spar_SD.fst
data/Spar/Spar_ED_ForED.dat
data/Spar/Spar_ED_ForSD.dat
data/Spar/Spar_HD.dat
data/Spar/Spar_HD_Dummy.dat
data/Spar/Spar_SD.dat
data/SubDyn/.gitignore
data/SubDyn/Jacket.dat
data/SubDyn/Jacket.dvr
data/SubDyn/JacketTwr.dat
data/SubDyn/JacketTwr.dvr
data/SubDyn/SD_Cable_5Joints.dat
data/SubDyn/SD_Cable_5Joints.dvr
data/SubDyn/Twr.dat
data/SubDyn/Twr.dvr
data/SubDyn/TwrSmall.dat
data/SubDyn/TwrSmall.dvr
data/Waves/RegularWave.Elev
data/example_files/FASTSum_Pendulum.SD.sum.yaml
data/example_files/FASTSum_PendulumNoCB.SD.sum.yaml
data/example_files/fastout_allnodes.outb
welib/Makefile
welib/__init__.py
welib/essentials.py
welib.egg-info/PKG-INFO
welib.egg-info/SOURCES.txt
welib.egg-info/dependency_links.txt
welib.egg-info/not-zip-safe
welib.egg-info/requires.txt
welib.egg-info/top_level.txt
welib/BEM/_OTHER.py
welib/BEM/_TODO.py
welib/BEM/__init__.py
welib/BEM/highthrust.py
welib/BEM/idealrotors.py
welib/BEM/steadyBEM.py
welib/BEM/unsteadyBEM.py
welib/BEM/examples/Example_AxialInduction.py
welib/BEM/examples/Example_BEM_1.py
welib/BEM/examples/Example_BEM_2.py
welib/BEM/examples/Example_BEM_CPLambdaPitch.py
welib/BEM/examples/Example_IdealRotor.py
welib/BEM/examples/Example_UnsteadyBEM_1_ConstantRPM.py
welib/BEM/examples/Example_UnsteadyBEM_2_PrescribedMotion.py
welib/BEM/examples/README.md
welib/BEM/matlab/fBEM.m
welib/BEM/matlab/fBEMCTFind.m
welib/BEM/matlab/fBEMSimulation.m
welib/BEM/matlab/fBEMpseudo_steady.m
welib/BEM/matlab/fBEMsteady.m
welib/BEM/matlab/fBEMsteadyTipLoss.m
welib/BEM/matlab/fBEMsteadyTipLossStandAlone.m
welib/BEM/matlab/fBEMunsteady.m
welib/BEM/matlab/fCorrectionHighThrust.m
welib/BEM/matlab/fInductionCoefficients.m
welib/BEM/matlab/fInductionsBEM_Propeller.m
welib/BEM/matlab/fInitBEMAlgo.m
welib/BEM/matlab/fRunBEM.m
welib/BEM/matlab/fakeBEM.m
welib/BEM/matlab/fakeBEMClCd.m
welib/BEM/matlab/getTransfoMatrices.m
welib/BEM/matlab/Simulations/MainBEMCompAllTipLossAEP.m
welib/BEM/matlab/Simulations/Test_CompAllTipLoss.m
welib/BEM/matlab/Simulations/Test_FindPitch.m
welib/BEM/matlab/Simulations/Test_PowerCurve.m
welib/BEM/matlab/Simulations/Test_PrescribedGamma.m
welib/BEM/matlab/Simulations/Test_SetSim.m
welib/BEM/matlab/Simulations/Test_SimpleRun.m
welib/BEM/matlab/Simulations/Test_SimulationRef.m
welib/BEM/matlab/Simulations/fPlotCodeCompBEM.m
welib/BEM/matlab/SimulationsAeroelasticit/MainPb3_2_WT3Dof_Pitch.m
welib/BEM/matlab/SimulationsUnsteadyBEM/Main_PitchStep.m
welib/BEM/matlab/Simulations/_incompatible/MainBEMcode.m
welib/BEM/matlab/Simulations/_incompatible/MainBEMcodeB49.m
welib/BEM/matlab/Simulations/_incompatible/MainBEMcodeLeishman.m
welib/BEM/matlab/Simulations/_incompatible/MainBEMcodeManu.m
welib/BEM/matlab/Simulations/_incompatible/MainBEMcodeManu2.m
welib/BEM/matlab/Simulations/_incompatible/MainBEMcodeTUD.m
welib/BEM/matlab/Simulations/_incompatible/MainBEMcodeTUD2.m
welib/BEM/matlab/Simulations/_incompatible/MainBEMcodeTUD3.m
welib/BEM/matlab/Simulations/_incompatible/MainFindPitch.m
welib/BEM/matlab/Simulations/_incompatible/OptiminumParam.m
welib/BEM/matlab/Simulations/_incompatible/Test2BEMCodeForoneLambda.m
welib/BEM/matlab/bkp/fBEMsteadyNew.m
welib/BEM/matlab/bkp/fBEMsteadyRiso.m
welib/BEM/matlab/bkp/fBEMsteadyTipLoss.m
welib/BEM/matlab/bkp/fBEMsteadyTipLossStandAlone1.m
welib/BEM/matlab/bkp/fBEMsteady_BACKUP.m
welib/BEM/matlab/bkp/fBEMsteady_mostRecentBackup.m
welib/BEM/matlab/bkp/fBEMsteady_try.m
welib/BEM/matlab/bkp/tmp/AeroFun.m
welib/BEM/matlab/bkp/tmp/LiftDataFun.m
welib/BEM/matlab/bkp/tmp/PowerCurve.m
welib/BEM/matlab/bkp/tmp/ReadHawc2.m
welib/BEM/matlab/bkp/tmp/Test2BEMcodeForOneLambda.m
welib/BEM/matlab/bkp/tmp/Test3OptimumLambda.m
welib/BEM/matlab/bkp/tmp/Test3OptimumLambdaClCd.m
welib/BEM/matlab/f_aeroelastic/Runge.m
welib/BEM/matlab/f_aeroelastic/RungeCore.m
welib/BEM/matlab/f_aeroelastic/RungeGoOn.m
welib/BEM/matlab/f_aeroelastic/fStep.m
welib/BEM/matlab/f_aeroelastic/getDampingMatrix.m
welib/BEM/matlab/f_aeroelastic/getMassMatrix.m
welib/BEM/matlab/f_aeroelastic/getMatrices.m
welib/BEM/matlab/f_aeroelastic/getStiffnessMatrix.m
welib/BEM/matlab/f_aeroelastic/solveAcceleration.m
welib/BEM/matlab/f_optimal/fFitChord.m
welib/BEM/matlab/f_optimal/fFitTwist.m
welib/BEM/matlab/f_optimal/getOptimizedParameters.m
welib/BEM/matlab/f_optimal/getOptimizedParametersClCd.m
welib/BEM/matlab/f_optimal/getRelationAX.m
welib/BEM/matlab/tools/fAeroCoeff.m
welib/BEM/matlab/tools/fAeroCoeffWrap.m
welib/BEM/matlab/tools/fApplySimOnWT.m
welib/BEM/matlab/tools/fExportWTPerf.m
welib/BEM/matlab/tools/fFindSimFolder.m
welib/BEM/matlab/tools/fInitAlgo.m
welib/BEM/matlab/tools/fInitFlex.m
welib/BEM/matlab/tools/fInitHawc.m
welib/BEM/matlab/tools/fInitSim.m
welib/BEM/matlab/tools/fInitVLAlgo_old.m
welib/BEM/matlab/tools/fInitWT.m
welib/BEM/matlab/tools/fInitWTDefault.m
welib/BEM/matlab/tools/fInitWTPerf.m
welib/BEM/matlab/tools/fInitXblade.m
welib/BEM/matlab/tools/fLoadBlade.m
welib/BEM/matlab/tools/fLoadCFD_AL.m
welib/BEM/matlab/tools/fLoadCodes.m
welib/BEM/matlab/tools/fLoadHawc2.m
welib/BEM/matlab/tools/fLoadMeas.m
welib/BEM/matlab/tools/fLoadShen.m
welib/BEM/matlab/tools/fLoadVC.m
welib/BEM/matlab/tools/fReadAeFile.m
welib/BEM/matlab/tools/fReadBtcFile.m
welib/BEM/matlab/tools/fReadBtcFileAll.m
welib/BEM/matlab/tools/fReadHawc2.m
welib/BEM/matlab/tools/fReadHtcFile.m
welib/BEM/matlab/tools/fReadHtcFileAll.m
welib/BEM/matlab/tools/fReadPcFile.m
welib/BEM/matlab/tools/fReadPcFileExtended.m
welib/BEM/matlab/tools/fReadSpec.m
welib/BEM/matlab/tools/fReadWTPerf.m
welib/BEM/matlab/tools/fReadXbladeParamFile.m
welib/BEM/matlab/tools/fSetRotorGrid.m
welib/BEM/matlab/tools/fSetRun.m
welib/BEM/matlab/tools/fSetSim.m
welib/BEM/matlab/tools/fWTAEP.m
welib/BEM/matlab/tools/fWTFindPitch.m
welib/BEM/matlab/tools/fWTGetRefRPM.m
welib/BEM/matlab/tools/fWTParametricCP.m
welib/BEM/matlab/tools/fWTPowerCurve.m
welib/BEM/matlab/tools/fWTSimRef.m
welib/BEM/matlab/tools/fWTSimulation.m
welib/BEM/matlab/tools/fhawc2_create_output.m
welib/BEM/matlab/tools/fhawc2_signal.m
welib/BEM/matlab/tools/fplotCodesComparison.m
welib/BEM/matlab/tools/getThrustFromBlade.m
welib/BEM/matlab/tools/getTorqueFromBlade.m
welib/BEM/matlab/tools/istrue.m
welib/BEM/matlab/tools/totrue.m
welib/BEM/matlab/tools/wind_rose.m
welib/BEM/matlab/tools/MainFindPitch/AeroFun.m
welib/BEM/matlab/tools/MainFindPitch/LiftDataFun.m
welib/BEM/matlab/tools/MainFindPitch/MainFindPitch.m
welib/BEM/matlab/tools/MainFindPitch/ReadHtcFileAll.m
welib/BEM/matlab/tools/MainFindPitch/SuperDebug.m
welib/BEM/matlab/tools/MainFindPitch/fFindPitch.m
welib/BEM/matlab/tools/MainFindPitch/fPower.m
welib/BEM/matlab/tools/__tests__/testAeroCoeff.m
welib/BEM/matlab/tools/__tests__/testCompareIntegration.m
welib/BEM/matlab/tools/__tests__/testIntegration.m
welib/BEM/matlab/tools/__tests__/testRead.m
welib/BEM/tests/__init__.py
welib/BEM/tests/test_BEM.py
welib/BEM/tests/test_BEM_unsteady.py
welib/BEM/tests/test_run_Examples.py
welib/CFD/__init__.py
welib/CFD/_vorticity-rz - Copy.py
welib/CFD/_vorticity-rz.py
welib/CFD/_vorticity-rz_lesswalls.py
welib/CFD/axisym_streamf.py
welib/CFD/tests/__init__.py
welib/CFD/tests/test_axisym_streamf.py
welib/FEM/__init__.py
welib/FEM/beam2d.py
welib/FEM/cable.py
welib/FEM/direct_elimination.py
welib/FEM/fem_beam.py
welib/FEM/fem_core.py
welib/FEM/fem_elements.py
welib/FEM/fem_model.py
welib/FEM/fem_sympy.py
welib/FEM/frame2d.py
welib/FEM/frame3d.py
welib/FEM/frame3dlin.py
welib/FEM/graph.py
welib/FEM/reduction.py
welib/FEM/timoshenko.py
welib/FEM/utils.py
welib/FEM/derivations/GuyanReduction.py
welib/FEM/derivations/frame2D_sympy.ipynb
welib/FEM/derivations/frame3D_sympy.ipynb
welib/FEM/examples/Beam_CraigBampton_Monopile.py
welib/FEM/examples/Beam_FlexibleProperties_Tower.py
welib/FEM/examples/Beam_ModeShapes_Tower.py
welib/FEM/examples/Beam_ModeShapes_UniformBeamFrame3d.py
welib/FEM/examples/Graph_CreateSimpleGraph.py
welib/FEM/examples/README.md
welib/FEM/examples/frame2d_element.py
welib/FEM/matlab/fBeamMatrices2D_2DOF.m
welib/FEM/matlab/fBeamMatrices3D_Frame6DOF.m
welib/FEM/matlab/fBuildGlobalMatrix.m
welib/FEM/matlab/fClampedBeamFEM2D.m
welib/FEM/matlab/fClampedBeamFEM3D_Frame.m
welib/FEM/matlab/fClampedBeamModes2D_2DOF.m
welib/FEM/matlab/fClampedBeamModesRayleighRitz.m
welib/FEM/matlab/fClampedBeamModesRayleighRitzHermitian.m
welib/FEM/matlab/fClampedBeamModesRotating.m
welib/FEM/matlab/fCraigBamptonReduce.m
welib/FEM/matlab/fElementDOFIndex.m
welib/FEM/matlab/fElementKNormalForce2D_2DOF.m
welib/FEM/matlab/fElementMatricesBeam2D_2DOF.m
welib/FEM/matlab/fElementMatricesFrame2D_3DOF.m
welib/FEM/matlab/fElementMatricesFrame3D_6DOF.m
welib/FEM/matlab/fGuyanReduce.m
welib/FEM/matlab/examples/Main_CraigBampton_2D.m
welib/FEM/matlab/examples/Main_CraigBampton_3D.m
welib/FEM/matlab/examples/Main_TowerTopExcitation.m
welib/FEM/matlab/examples/RefDisp.csv
welib/FEM/matlab/examples/ThinBeam3D.m
welib/FEM/matlab/examples/ThinRotatingBeam_FEM.m
welib/FEM/matlab/examples/fTowerTopExcitation.m
welib/FEM/matlab/examples/fTowerTopMDKR.m
welib/FEM/matlab/examples/fTowerTopYDot.m
welib/FEM/models/__init__.py
welib/FEM/models/uniform_beam.py
welib/FEM/tests/_FEMBeam2SID.py
welib/FEM/tests/__init__.py
welib/FEM/tests/test_beam_linear_element.py
welib/FEM/tests/test_fem_elements.py
welib/FEM/tests/test_frame3d.py
welib/FEM/tests/test_reduction.py
welib/FEM/tests/test_run_Examples.py
welib/FEM/tests/test_timoshenko.py
welib/FEM/tests/test_utils.py
welib/airfoils/DynamicStall.py
welib/airfoils/Makefile
welib/airfoils/Polar.py
welib/airfoils/_Polar_Wisdem.py
welib/airfoils/__init__.py
welib/airfoils/naca.py
welib/airfoils/polar_file.py
welib/airfoils/section.py
welib/airfoils/shapes.py
welib/airfoils/wings.py
welib/airfoils/data/63-235.csv
welib/airfoils/data/Cylinder.csv
welib/airfoils/data/Cylinder.dat
welib/airfoils/data/DU21_A17.csv
welib/airfoils/data/FFA-W3-241-Re12M.dat
welib/airfoils/data/tjaere11_ds.csv
welib/airfoils/examples/README.md
welib/airfoils/examples/correction3D.py
welib/airfoils/examples/createADPolarFile.py
welib/airfoils/examples/dynamic_stall_mhh.py
welib/airfoils/examples/dynamic_stall_mhh_riso_1792.py
welib/airfoils/examples/dynamic_stall_mhh_step_change.py
welib/airfoils/examples/dynamic_stall_oye.py
welib/airfoils/examples/wagner.py
welib/airfoils/matlab/KarmanTrefftzGeometry
welib/airfoils/matlab/KarmanTrefftzGeometry.f90
welib/airfoils/matlab/MainProfileCoordinatesExamples.m
welib/airfoils/matlab/Makefile
welib/airfoils/matlab/fAirfoilExtendPolarViterna.m
welib/airfoils/matlab/fAlpha0.m
welib/airfoils/matlab/fAlphaSlope.m
welib/airfoils/matlab/fCdFromCf.m
welib/airfoils/matlab/fCdFromCp.m
welib/airfoils/matlab/fClFromCf.m
welib/airfoils/matlab/fClFromCp.m
welib/airfoils/matlab/fDynaStallOye.m
welib/airfoils/matlab/fInitPolar.m
welib/airfoils/matlab/fLoadFromPressure.m
welib/airfoils/matlab/fLoadFromTau.m
welib/airfoils/matlab/fPlotAirfoilForces.m
welib/airfoils/matlab/fPlotAirfoilScene.m
welib/airfoils/matlab/fPlotAirfoilShear.m
welib/airfoils/matlab/fPolarExtendViterna.m
welib/airfoils/matlab/fPolarFullySeparated.m
welib/airfoils/matlab/fPolarInviscid.m
welib/airfoils/matlab/fPressureIntegration.m
welib/airfoils/matlab/fProfileCoordinates.m
welib/airfoils/matlab/fProfileKarmanTrefftz.m
welib/airfoils/matlab/fProfileStandardize.m
welib/airfoils/matlab/fProfileVanDeVooren.m
welib/airfoils/matlab/naca4gen.m
welib/airfoils/matlab/naca5gen.m
welib/airfoils/matlab/struct2str.m
welib/airfoils/matlab/textlegend.m
welib/airfoils/matlab/tst_naca4gen.m
welib/airfoils/matlab/tst_naca5gen.m
welib/airfoils/matlab/__tests__/MainForcedOscillations.m
welib/airfoils/matlab/__tests__/MainPolars.m
welib/airfoils/matlab/__tests__/MainPolarsFullySep.m
welib/airfoils/matlab/__tests__/data/DTU_10MW_RWT_pc.dat
welib/airfoils/matlab/__tests__/data/FFA-W3-241-Re12e6.dat
welib/airfoils/matlab/__tests__/data/tjaere11_ds.dat
welib/airfoils/matlab/data/ffaw3211.dat
welib/airfoils/matlab/data/ffaw3241.dat
welib/airfoils/matlab/data/ffaw3301.dat
welib/airfoils/matlab/data/ffaw3360.dat
welib/airfoils/matlab/data/ffaw3400fb.dat
welib/airfoils/matlab/data/ffaw3480.dat
welib/airfoils/matlab/data/geom-cylinder.dat
welib/airfoils/matlab/data/geom-ffaw3241.dat
welib/airfoils/matlab/data/geom-karman-trefftz_-0.1_0.0_5.dat
welib/airfoils/tests/__init__.py
welib/airfoils/tests/test_dynamic_stall.py
welib/airfoils/tests/test_polar_interp.py
welib/airfoils/tests/test_polar_manip.py
welib/airfoils/tests/test_polar_params.py
welib/airfoils/tests/test_polar_subfunctions.py
welib/airfoils/tests/test_run_Examples.py
welib/airfoils/tests/test_section.py
welib/beams/__init__.py
welib/beams/theory.py
welib/beams/examples/Ex1_BeamModes.py
welib/beams/examples/Ex2_BeamModesAllBC.py
welib/beams/examples/___TestBeamDynUniform.py
welib/beams/examples/__init__.py
welib/beams/matlab/fInputParser.m
welib/beams/matlab/fUniformBeamTheory.m
welib/beams/matlab/fUniformBeamTheoryLongi.m
welib/beams/matlab/fUniformBeamTheoryTorsion.m
welib/beams/matlab/examples/Main_Modes.m
welib/beams/matlab/examples/Main_Modes_For_FAST.m
welib/beams/tests/__init__.py
welib/beams/tests/test_theory.py
welib/ctrl/_BodePlot.py
welib/ctrl/__init__.py
welib/ctrl/_secord-matlab.py
welib/ctrl/_secord_transfer.py
welib/dyninflow/DynamicInflow.py
welib/dyninflow/__init__.py
welib/dyninflow/examples/Ex1_StepUp.py
welib/dyninflow/examples/__init__.py
welib/fast/FASTLin.py
welib/fast/README.md
welib/fast/__init__.py
welib/fast/aerodyn.py
welib/fast/beamdyn.py
welib/fast/campbell.py
welib/fast/case_gen.py
welib/fast/elastodyn.py
welib/fast/extract.py
welib/fast/fast_mesh - Copy.py
welib/fast/fast_mesh.py
welib/fast/fastfarm.py
welib/fast/fastlib.py
welib/fast/fastlib_legacy.py
welib/fast/hydrodyn.py
welib/fast/hydrodyn_driver.py
welib/fast/hydrodyn_morison.py
welib/fast/hydrodyn_waves.py
welib/fast/linearization.py
welib/fast/linmodel.py
welib/fast/olaf.py
welib/fast/postpro.py
welib/fast/runner.py
welib/fast/subdyn.py
welib/fast/subdyn_sum.py
welib/fast/tuning.py
welib/fast/examples/.gitignore
welib/fast/examples/Example_CPLambdaPitch.py
welib/fast/examples/Example_ElastoDynShapeFunctionFitting.py
welib/fast/examples/Example_ExcelFile.py
welib/fast/examples/Example_ExtractInertia.py
welib/fast/examples/Example_Hawc2ToBeamDyn.py
welib/fast/examples/Example_HydroDyn_PrescribedMotion.py
welib/fast/examples/Example_Parametric.py
welib/fast/examples/Example_PointMesh.py
welib/fast/examples/Example_PowerCurve_Parametric.py
welib/fast/examples/Example_RadialInterp.py
welib/fast/examples/Example_RadialPostPro.py
welib/fast/examples/Example_Remap.py
welib/fast/examples/Example_SubDyn_Modes.py
welib/fast/examples/Example_TuneTowerDamping.py
welib/fast/examples/ParametricExcel.xlsx
welib/fast/examples/README.md
welib/fast/modules/__init__.py
welib/fast/modules/map/__init__.py
welib/fast/modules/map/examples/MAPStiffnessMatrix.py
welib/fast/tests/__init__.py
welib/fast/tests/test_elastodyn.py
welib/fast/tests/test_hydrodyn.py
welib/fast/tests/test_mesh.py
welib/fast/tests/test_run_Examples.py
welib/fast/tools/__init__.py
welib/fast/tools/lin.py
welib/hydro/__init__.py
welib/hydro/_spectral.py
welib/hydro/addedmass.py
welib/hydro/hydrostat.py
welib/hydro/morison.py
welib/hydro/spectra.py
welib/hydro/tools.py
welib/hydro/wavekin.py
welib/hydro/examples/Ex1_WaveKinematics.py
welib/hydro/examples/Ex2_Jonswap_spectrum.py
welib/hydro/examples/Ex3_WaveTimeSeries.py
welib/hydro/examples/Ex4_WaveLoads.py
welib/hydro/examples/README.md
welib/hydro/examples/__init__.py
welib/hydro/tests/__init__.py
welib/hydro/tests/test_morison.py
welib/hydro/tests/test_run_Examples.py
welib/hydro/tests/test_spectra.py
welib/hydro/tests/test_wavekin.py
welib/kalman/TN.py
welib/kalman/TNLin.py
welib/kalman/__init__.py
welib/kalman/filters.py
welib/kalman/kalman.py
welib/kalman/kalmanfilter.py
welib/kalman/examples/Mech_1DOF.py
welib/kalman/examples/onshore_OFLin/001_Linearization_GenerateCase.py
welib/kalman/examples/onshore_OFLin/002_Create_FASTLin.py
welib/kalman/examples/onshore_OFLin/301_Kalman_2DOF_5States.py
welib/kalman/examples/onshore_OFLin/kalman_models.py
welib/kalman/examples/onshore_YAMS/000_CPLambdaPitch.py
welib/kalman/examples/onshore_YAMS/100_WSEstimation.py
welib/kalman/examples/onshore_YAMS/300_Kalman_2DOF_7States.py
welib/kalman/tests/__init__.py
welib/kalman/tests/test_kalman.py
welib/kalman/tests/test_run_Examples.py
welib/mesh/__init__.py
welib/mesh/fCoordRectilinearGrid.py
welib/mesh/fCoordRegularGrid.py
welib/mesh/fMeshProgressive.py
welib/mesh/fMeshProgressiveExtent.py
welib/mesh/fbinary_search.py
welib/mesh/gradient.py
welib/mesh/mesh.py
welib/mesh/vectoranalysis.py
welib/mesh/tests/__init__.py
welib/mesh/tests/test_vectoranalysis.py
welib/moor/__init__.py
welib/moor/mappp.py
welib/ode/__init__.py
welib/ode/generalizedalpha.py
welib/ode/rk_dormand_prince.py
welib/ode/rk_nystrom.py
welib/ode/matlab/fodeKrenk.m
welib/ode/matlab/fodeNewmark.m
welib/ode/matlab/fodeNewmarkNonLinear.m
welib/ode/matlab/fodeProgressBar.m
welib/ode/matlab/fodeRK4.m
welib/ode/tests/__init__.py
welib/plot/_PlotTorus.py
welib/plot/__init__.py
welib/plot/json3d.py
welib/plot/surface3d.py
welib/plot/examples/JSON3D_01_CreateSimpleFile.py
welib/plot/examples/Plot_3D_blades.py
welib/plot/examples/Plot_3D_surfaces.py
welib/plot/tests/__init__.py
welib/plot/tests/test_run_Examples.py
welib/standards/IEC.py
welib/standards/__init__.py
welib/standards/examples/Ex1_TurbulenceClasses.py
welib/standards/examples/Ex2_EOG.py
welib/standards/examples/__init__.py
welib/system/Makefile
welib/system/__init__.py
welib/system/chaos.py
welib/system/eva.py
welib/system/firstorder.py
welib/system/linearization.py
welib/system/lti.py
welib/system/mbc.py
welib/system/mech_system.py
welib/system/secondorder.py
welib/system/singledof.py
welib/system/statespace.py
welib/system/statespacelinear.py
welib/system/system.py
welib/system/tools.py
welib/system/transferfunction.py
welib/system/examples/Example_DriveTrainTorsion.py
welib/system/examples/Example_DriveTrainTorsion_Wrap.py
welib/system/examples/FirstOrderSystem_Scalar.py
welib/system/examples/Lorenz.py
welib/system/examples/MassSpringDamper_Duhamel.py
welib/system/examples/MassSpringDamper_ForcedVibrations.py
welib/system/examples/MassSpringDamper_StateSpace_FreqDomain.py
welib/system/examples/SecondOrderSystem_Scalar.py
welib/system/examples/StepResponse.py
welib/system/examples/pendulum.py
welib/system/examples/pendulum_3d.py
welib/system/examples/pendulum_on_prescribed_cart.py
welib/system/tests/__init__.py
welib/system/tests/test_eva.py
welib/system/tests/test_linearization.py
welib/system/tests/test_mbc.py
welib/system/tests/test_run_Examples.py
welib/system/tests/test_singledof.py
welib/system/tests/test_system.py
welib/system/wtmodels/__init__.py
welib/system/wtmodels/model15M.py
welib/system/wtmodels/model5CS.py
welib/system/wtmodels/examples/model15M_exA1.py
welib/system/wtmodels/examples/model15M_exA2.py
welib/system/wtmodels/examples/model15M_exB1.py
welib/system/wtmodels/examples/model5CS_ronnie.py
welib/system/wtmodels/tests/__init__.py
welib/system/wtmodels/tests/test_model15M.py
welib/system/wtmodels/tests/test_run_Examples.py
welib/time/TimeManager.m
welib/time/fInitTime.m
welib/tools/README.md
welib/tools/__init__.py
welib/tools/bithashlib.py
welib/tools/clean_exceptions.py
welib/tools/colors.py
welib/tools/compare.py
welib/tools/curve_fitting.py
welib/tools/curves.py
welib/tools/damping.py
welib/tools/dictlib.py
welib/tools/eva.py
welib/tools/fatigue.py
welib/tools/fields.py
welib/tools/figure.py
welib/tools/functions.py
welib/tools/galib.py
welib/tools/latex.py
welib/tools/lic.py
welib/tools/pandalib.py
welib/tools/pycmd.py
welib/tools/regression.py
welib/tools/repo.py
welib/tools/requirements.txt
welib/tools/signal_analysis.py
welib/tools/spectral.py
welib/tools/stats.py
welib/tools/strings.py
welib/tools/svd.py
welib/tools/tictoc.py
welib/tools/SpectralAnalysis/fLogSmooth.m
welib/tools/SpectralAnalysis/fSpectrum.m
welib/tools/SpectralAnalysis/fSpectrumAngular.m
welib/tools/examples/ExampleCoherence.py
welib/tools/examples/ExampleCorrelation.py
welib/tools/examples/Example_FFT.py
welib/tools/examples/Example_SVD.py
welib/tools/examples/VortexCylinderPressure.py
welib/tools/external/Makefile
welib/tools/external/__init__.py
welib/tools/external/_lic_demo.py
welib/tools/external/lic_internal.c
welib/tools/external/lic_internal.pyx
welib/tools/external/setup.py
welib/tools/tests/__init__.py
welib/tools/tests/test_colors.py
welib/tools/tests/test_curve_fitting.py
welib/tools/tests/test_curves.py
welib/tools/tests/test_dictlib.py
welib/tools/tests/test_fatigue.py
welib/tools/tests/test_functions.py
welib/tools/tests/test_signal.py
welib/tools/tests/test_spectral.py
welib/tools/tests/test_vectoranalyses.py
welib/vortilib/.gitignore
welib/vortilib/__init__.py
welib/vortilib/elements/InviscidVortexPatch.py
welib/vortilib/elements/LambOseen.py
welib/vortilib/elements/SourceEllipsoid.py
welib/vortilib/elements/VortexAxisymmetric.py
welib/vortilib/elements/VortexCylinder.py
welib/vortilib/elements/VortexCylinderSkewed.py
welib/vortilib/elements/VortexDoublet.py
welib/vortilib/elements/VortexHelix.py
welib/vortilib/elements/VortexLine.py
welib/vortilib/elements/VortexParticle.py
welib/vortilib/elements/VortexPatch2DGaussian.py
welib/vortilib/elements/VortexPoint.py
welib/vortilib/elements/VortexRing.py
welib/vortilib/elements/VortexSegment.py
welib/vortilib/elements/VortexSurfaceFlowField.py
welib/vortilib/elements/__init__.py
welib/vortilib/elements/elliptic.py
welib/vortilib/elements/fOmega_VortexBrick2D.py
welib/vortilib/elements/fOmega_VortexBrick3D.py
welib/vortilib/elements/fUi_VortexSegment11_smooth.py
welib/vortilib/elements/examples/EllipticalCoordinates.py
welib/vortilib/elements/examples/InviscidVortexPatch.py
welib/vortilib/elements/examples/LambOseenFenics.py
welib/vortilib/elements/examples/SourceEllipsoid_Deriv.py
welib/vortilib/elements/examples/SourceEllipsoid_Plots.py
welib/vortilib/elements/examples/VortexHelix.py
welib/vortilib/elements/examples/VortexParticle_Regularization.py
welib/vortilib/elements/examples/VortexPoint2DDistribution.py
welib/vortilib/elements/examples/VortexSegment_CrossField.py
welib/vortilib/elements/examples/VortexSegment_Regularization.py
welib/vortilib/elements/examples/VortexSurfaceFlowField.py
welib/vortilib/elements/fortran/EllipticIntegrals.f90
welib/vortilib/elements/fortran/MathConstants.f90
welib/vortilib/elements/fortran/Part.f90
welib/vortilib/elements/fortran/PrecisionMod.f90
welib/vortilib/elements/fortran/Sgmt.f90
welib/vortilib/elements/fortran/SurfaceMap.f90
welib/vortilib/elements/fortran/UIBlobs.f90
welib/vortilib/elements/fortran/UIHillsVortex.f90
welib/vortilib/elements/fortran/UIPanels.f90
welib/vortilib/elements/fortran/UIPointSource.f90
welib/vortilib/elements/fortran/UISegments.f90
welib/vortilib/elements/fortran/UIVortexCylinders.f90
welib/vortilib/elements/fortran/UIVortexPoint2D.f90
welib/vortilib/elements/fortran/UIVortexPoint2DPerdiodic.f90
welib/vortilib/elements/fortran/UIVortexRings.f90
welib/vortilib/elements/tests/__init__.py
welib/vortilib/elements/tests/test_elements.py
welib/vortilib/elements/tests/test_run_Examples.py
welib/vortilib/particles/__init__.py
welib/vortilib/particles/initialization.py
welib/vortilib/particles/particles.py
welib/vortilib/particles/projection.py
welib/vortilib/particles/examples/MainVC2D_TestProj.py
welib/vortilib/particles/tests/__init__.py
welib/vortilib/particles/tests/test_particles.py
welib/weio/.gitignore
welib/weio/_NEWFILE_TEMPLATE.py
welib/weio/__init__.py
welib/weio/bladed_out_file.py
welib/weio/bmodes_out_file.py
welib/weio/cactus_element_file.py
welib/weio/cactus_file.py
welib/weio/csv_file.py
welib/weio/excel_file.py
welib/weio/fast_input_deck.py
welib/weio/fast_input_file.py
welib/weio/fast_input_file_graph.py
welib/weio/fast_linearization_file.py
welib/weio/fast_output_file.py
welib/weio/fast_summary_file.py
welib/weio/fast_wind_file.py
welib/weio/file.py
welib/weio/file_formats.py
welib/weio/flex_blade_file.py
welib/weio/flex_doc_file.py
welib/weio/flex_out_file.py
welib/weio/flex_profile_file.py
welib/weio/flex_wavekin_file.py
welib/weio/hawc2_ae_file.py
welib/weio/hawc2_dat_file.py
welib/weio/hawc2_htc_file.py
welib/weio/hawc2_pc_file.py
welib/weio/hawc2_st_file.py
welib/weio/hawcstab2_cmb_file.py
welib/weio/hawcstab2_ind_file.py
welib/weio/hawcstab2_pwr_file.py
welib/weio/mannbox_file.py
welib/weio/mannbox_input_file.py
welib/weio/matlabmat_file.py
welib/weio/mini_yaml.py
welib/weio/netcdf_file.py
welib/weio/parquet_file.py
welib/weio/pickle_file.py
welib/weio/raawmat_file.py
welib/weio/rosco_discon_file.py
welib/weio/rosco_performance_file.py
welib/weio/tdms_file.py
welib/weio/tecplot_file.py
welib/weio/turbsim_file.py
welib/weio/turbsim_ts_file.py
welib/weio/user.py
welib/weio/vtk_file.py
welib/weio/examples/ModifyAeroDynBladeFile.py
welib/weio/tools/__init__.py
welib/weio/tools/graph.py
welib/weio/wetb/__init__.py
welib/weio/wetb/hawc2/Hawc2io.py
welib/weio/wetb/hawc2/__init__.py
welib/weio/wetb/hawc2/ae_file.py
welib/weio/wetb/hawc2/htc_contents.py
welib/weio/wetb/hawc2/htc_extensions.py
welib/weio/wetb/hawc2/htc_file.py
welib/weio/wetb/hawc2/htc_file_set.py
welib/weio/wetb/hawc2/pc_file.py
welib/weio/wetb/hawc2/st_file.py
welib/wind/__init__.py
welib/wind/spectra.py
welib/wind/windsim.py
welib/wind/examples/WindGenerationAtPoint.py
welib/wind/matlab/fInitWind.m
welib/wind/matlab/fReadMannBinary.m
welib/wind/matlab/fSetWind.m
welib/wind/matlab/fStocWind.m
welib/wind/matlab/fUi_Wind.m
welib/wind/matlab/getPointIncomingWindLegacy01.m
welib/wind/matlab/getPointIncomingWindLegacy02.m
welib/wind/matlab/getPointIncomingWindLegacy03.m
welib/wind/matlab/wind_Load.m
welib/wind/matlab/wind_SetDefault.m
welib/wind/tests/__init__.py
welib/wind/tests/test_run_Examples.py
welib/windwave/Main_Calls.m
welib/windwave/Main_Elast.m
welib/windwave/Main_WindWaves.m
welib/windwave/fHydroCalcFinal.m
welib/windwave/fJonswap.m
welib/windwave/fPlotCompare.m
welib/windwave/fPlotSimple.m
welib/windwave/fSpectrum.m
welib/windwave/fSpectrumAvg.m
welib/windwave/fSpectrumCalc.m
welib/windwave/fStocWind.m
welib/windwave/fWaveKin.m
welib/windwave/fWindCalc.m
welib/windwave/fgetDispersion.m
welib/windwave/fqPrime.m
welib/windwave/include_globals.m
welib/ws_estimator/__init__.py
welib/ws_estimator/tabulated.py
welib/ws_estimator/tabulated_floating.py
welib/ws_estimator/examples/Floating.py
welib/ws_estimator/tests/__init__.py
welib/ws_estimator/tests/test_tabulated.py
welib/wt_theory/AxialInduction-CT.m
welib/wt_theory/AxialInductionCT.m
welib/wt_theory/highthrust.py
welib/wt_theory/idealrotors.py
welib/wt_theory/wakeexpansion.py
welib/wt_theory/examples/WakeExpansion.py
welib/wt_theory/examples/WakeLengthInducedVelocity.py
welib/wt_theory/matlab/OptimalCirculation/.gitignore
welib/wt_theory/matlab/OptimalCirculation/VERSIONS
welib/wt_theory/matlab/OptimalCirculation/Mathematica/lib/Functions_Dates.m
welib/wt_theory/matlab/OptimalCirculation/Mathematica/lib/Functions_LidarSpectra.m
welib/wt_theory/matlab/OptimalCirculation/Mathematica/lib/Functions_Lists.m